<?xml version="1.0" encoding="UTF-8"?>

<!-- generated on 2025-02-23 16:18:03.436120 by osmWebWizard.py v1_19_0+0000-baa66a0f364
<configuration>
    <net-file value="D:\0_Research\0_SUMO_Web\2025-02-23-16-17-55\osm.net.xml.gz"/>
    <output-trip-file value="D:\0_Research\0_SUMO_Web\2025-02-23-16-17-55\osm.passenger.trips.xml"/>
    <route-file value="D:\0_Research\0_SUMO_Web\2025-02-23-16-17-55\osm.passenger.rou.xml"/>
    <prefix value="veh"/>
    <trip-attributes value="departLane=&quot;best&quot;"/>
    <fringe-start-attributes value="departSpeed=&quot;max&quot;"/>
    <vehicle-class value="passenger"/>
    <lanes value="True"/>
    <fringe-factor value="5"/>
    <allow-fringe.min-length value="1000.0"/>
    <via-edge-types value="highway.motorway,highway.motorway_link,highway.trunk_link,highway.primary_link,highway.secondary_link,highway.tertiary_link"/>
    <min-distance value="300.0"/>
    <min-distance.fringe value="10.0"/>
    <remove-loops value="True"/>
    <validate value="True"/>
    <insertion-density value="30.0"/>
</configuration>
-->

<!-- generated on 2025-02-23 16:18:03 by Eclipse SUMO duarouter Version 1.19.0
<configuration xmlns:xsi="http://www.w3.org/2001/XMLSchema-instance" xsi:noNamespaceSchemaLocation="http://sumo.dlr.de/xsd/duarouterConfiguration.xsd">

    <input>
        <net-file value="D:\0_Research\0_SUMO_Web\2025-02-23-16-17-55\osm.net.xml.gz"/>
        <route-files value="D:\0_Research\0_SUMO_Web\2025-02-23-16-17-55\osm.passenger.trips.xml"/>
    </input>

    <output>
        <output-file value="D:\0_Research\0_SUMO_Web\2025-02-23-16-17-55\osm.passenger.trips.xml.tmp"/>
        <alternatives-output value="NUL"/>
        <write-trips value="true"/>
    </output>

    <processing>
        <remove-loops value="true"/>
    </processing>

    <time>
        <begin value="0.0"/>
        <end value="3600.0"/>
    </time>

    <report>
        <no-warnings value="true"/>
        <ignore-errors value="true"/>
        <no-step-log value="true"/>
    </report>

</configuration>
-->

<routes xmlns:xsi="http://www.w3.org/2001/XMLSchema-instance" xsi:noNamespaceSchemaLocation="http://sumo.dlr.de/xsd/routes_file.xsd">
    <vType id="veh_passenger" vClass="passenger"/>
    <trip id="veh0" type="veh_passenger" depart="0.00" departLane="best" departSpeed="max" from="15386921#0" to="124953218"/>
    <trip id="veh1" type="veh_passenger" depart="3.69" departLane="best" from="-655414277#1" to="-31954230"/>
    <trip id="veh2" type="veh_passenger" depart="7.37" departLane="best" from="-124953132#4" to="124953217"/>
    <trip id="veh3" type="veh_passenger" depart="11.06" departLane="best" departSpeed="max" from="-328089355#1" to="124953239#0"/>
    <trip id="veh4" type="veh_passenger" depart="14.74" departLane="best" from="-124953220" to="-201680476#1"/>
    <trip id="veh5" type="veh_passenger" depart="18.43" departLane="best" departSpeed="max" from="15386921#0" to="128247517#0"/>
    <trip id="veh6" type="veh_passenger" depart="22.11" departLane="best" departSpeed="max" from="-328089355#1" to="129334239#0"/>
    <trip id="veh7" type="veh_passenger" depart="25.80" departLane="best" from="327172660" to="132665217#0"/>
    <trip id="veh8" type="veh_passenger" depart="29.48" departLane="best" from="31964115" to="179592387#1"/>
    <trip id="veh9" type="veh_passenger" depart="33.17" departLane="best" from="103063523#0" to="-1357861982#1"/>
    <trip id="veh10" type="veh_passenger" depart="36.85" departLane="best" departSpeed="max" from="-128248211" to="-126307536#1"/>
    <trip id="veh11" type="veh_passenger" depart="40.54" departLane="best" from="391685208#0" to="132665217#0"/>
    <trip id="veh12" type="veh_passenger" depart="44.22" departLane="best" from="327172654#0" to="25775203"/>
    <trip id="veh13" type="veh_passenger" depart="47.91" departLane="best" departSpeed="max" from="126307536#0" to="764477604#1"/>
    <trip id="veh14" type="veh_passenger" depart="51.59" departLane="best" departSpeed="max" from="1095943082#0" to="128247517#0"/>
    <trip id="veh15" type="veh_passenger" depart="55.28" departLane="best" from="-328283027#1" to="144946682"/>
    <trip id="veh16" type="veh_passenger" depart="58.96" departLane="best" from="436614657#0" to="128248211"/>
    <trip id="veh17" type="veh_passenger" depart="62.65" departLane="best" departSpeed="max" from="-328283026" to="-531317089#2"/>
    <trip id="veh19" type="veh_passenger" depart="70.02" departLane="best" from="-128248216#1" to="-436614660#1"/>
    <trip id="veh20" type="veh_passenger" depart="73.70" departLane="best" departSpeed="max" from="15386921#0" to="103063523#0"/>
    <trip id="veh21" type="veh_passenger" depart="77.39" departLane="best" departSpeed="max" from="1095943082#0" to="204964754#2"/>
    <trip id="veh22" type="veh_passenger" depart="81.07" departLane="best" from="571500824#2" to="729333701#7"/>
    <trip id="veh23" type="veh_passenger" depart="84.76" departLane="best" departSpeed="max" from="15386921#0" to="1354456442#0"/>
    <trip id="veh24" type="veh_passenger" depart="88.44" departLane="best" from="-204964754#1" to="25775203"/>
    <trip id="veh25" type="veh_passenger" depart="92.13" departLane="best" departSpeed="max" from="977923550#0" to="15387933#0"/>
    <trip id="veh26" type="veh_passenger" depart="95.81" departLane="best" departSpeed="max" from="128248206" to="15408534#0"/>
    <trip id="veh27" type="veh_passenger" depart="99.50" departLane="best" from="391685208#0" to="328089354"/>
    <trip id="veh28" type="veh_passenger" depart="103.18" departLane="best" departSpeed="max" from="-328283026" to="-124953234#1"/>
    <trip id="veh29" type="veh_passenger" depart="106.87" departLane="best" departSpeed="max" from="-729333701#7" to="-387759474#1"/>
    <trip id="veh30" type="veh_passenger" depart="110.55" departLane="best" from="436614691#0" to="655414277#0"/>
    <trip id="veh31" type="veh_passenger" depart="114.24" departLane="best" from="15387933#0" to="124953109#0"/>
    <trip id="veh32" type="veh_passenger" depart="117.92" departLane="best" departSpeed="max" from="571500825#0" to="124953224"/>
    <trip id="veh33" type="veh_passenger" depart="121.61" departLane="best" from="571500824#1" to="366244289"/>
    <trip id="veh34" type="veh_passenger" depart="125.29" departLane="best" departSpeed="max" from="128248206" to="-387759474#1"/>
    <trip id="veh36" type="veh_passenger" depart="132.66" departLane="best" departSpeed="max" from="-128248211" to="-124953236#4"/>
    <trip id="veh37" type="veh_passenger" depart="136.35" departLane="best" from="-1357861981#1" to="15376859#0"/>
    <trip id="veh38" type="veh_passenger" depart="140.03" departLane="best" departSpeed="max" from="25775222#0" to="-124953137#1"/>
    <trip id="veh39" type="veh_passenger" depart="143.72" departLane="best" from="-124953236#4" to="1055017048"/>
    <trip id="veh40" type="veh_passenger" depart="147.40" departLane="best" from="990859405" to="126297977#1"/>
    <trip id="veh41" type="veh_passenger" depart="151.09" departLane="best" from="-1358673130" to="25703263#0"/>
    <trip id="veh42" type="veh_passenger" depart="154.77" departLane="best" from="124953130#0" to="25703263#0"/>
    <trip id="veh43" type="veh_passenger" depart="158.46" departLane="best" departSpeed="max" from="15393823#0" to="-131281647#1"/>
    <trip id="veh44" type="veh_passenger" depart="162.14" departLane="best" from="-1357861981#1" to="124953218"/>
    <trip id="veh45" type="veh_passenger" depart="165.83" departLane="best" from="124953236#3" to="729333701#7"/>
    <trip id="veh47" type="veh_passenger" depart="173.20" departLane="best" departSpeed="max" from="571500825#0" to="512011790#0"/>
    <trip id="veh48" type="veh_passenger" depart="176.88" departLane="best" from="-729333701#6" to="126307529"/>
    <trip id="veh49" type="veh_passenger" depart="180.57" departLane="best" from="147361679#0" to="-1357861982#1"/>
    <trip id="veh50" type="veh_passenger" depart="184.25" departLane="best" departSpeed="max" from="238146427#0" to="126307540"/>
    <trip id="veh51" type="veh_passenger" depart="187.94" departLane="best" from="436614689#0" to="-126297977#1"/>
    <trip id="veh52" type="veh_passenger" depart="191.62" departLane="best" from="-1018275136#1" to="-655501841#1"/>
    <trip id="veh53" type="veh_passenger" depart="195.31" departLane="best" from="-124953216" to="729333701#5"/>
    <trip id="veh54" type="veh_passenger" depart="198.99" departLane="best" from="-1358673132" to="391685208#0"/>
    <trip id="veh55" type="veh_passenger" depart="202.68" departLane="best" departSpeed="max" from="-729333701#7" to="-124953239#1"/>
    <trip id="veh56" type="veh_passenger" depart="206.36" departLane="best" from="126297977#1" to="124953234#3"/>
    <trip id="veh57" type="veh_passenger" depart="210.05" departLane="best" from="-124953237#1" to="31961202#1"/>
    <trip id="veh58" type="veh_passenger" depart="213.73" departLane="best" departSpeed="max" from="238146427#0" to="656058566#0"/>
    <trip id="veh59" type="veh_passenger" depart="217.42" departLane="best" from="571500824#1" to="512011790#0"/>
    <trip id="veh60" type="veh_passenger" depart="221.10" departLane="best" from="124953137#0" to="-25703280#1"/>
    <trip id="veh61" type="veh_passenger" depart="224.79" departLane="best" departSpeed="max" from="126307536#0" to="25775203"/>
    <trip id="veh62" type="veh_passenger" depart="228.47" departLane="best" departSpeed="max" from="-30552450#2" to="-655283348"/>
    <trip id="veh63" type="veh_passenger" depart="232.16" departLane="best" from="990859405" to="15394751#0"/>
    <trip id="veh65" type="veh_passenger" depart="239.53" departLane="best" from="990859405" to="129334239#0"/>
    <trip id="veh66" type="veh_passenger" depart="243.21" departLane="best" departSpeed="max" from="-328283026" to="31954224"/>
    <trip id="veh67" type="veh_passenger" depart="246.90" departLane="best" from="-124953237#1" to="15376859#1"/>
    <trip id="veh68" type="veh_passenger" depart="250.58" departLane="best" departSpeed="max" from="-328283026" to="655637400"/>
    <trip id="veh69" type="veh_passenger" depart="254.27" departLane="best" from="436614657#0" to="-124953704"/>
    <trip id="veh70" type="veh_passenger" depart="257.95" departLane="best" departSpeed="max" from="-328283045#1" to="-15399066#2"/>
    <trip id="veh72" type="veh_passenger" depart="265.32" departLane="best" from="-655414280#1" to="128248211"/>
    <trip id="veh73" type="veh_passenger" depart="269.01" departLane="best" departSpeed="max" from="126033675" to="328089355#0"/>
    <trip id="veh74" type="veh_passenger" depart="272.69" departLane="best" from="327172654#0" to="-15399066#2"/>
    <trip id="veh75" type="veh_passenger" depart="276.38" departLane="best" departSpeed="max" from="-128248211" to="124953217"/>
    <trip id="veh76" type="veh_passenger" depart="280.06" departLane="best" from="124953137#0" to="124953234#2"/>
    <trip id="veh77" type="veh_passenger" depart="283.75" departLane="best" departSpeed="max" from="15399066#0" to="15400170#0"/>
    <trip id="veh78" type="veh_passenger" depart="287.43" departLane="best" departSpeed="max" from="977923550#0" to="-126307536#1"/>
    <trip id="veh79" type="veh_passenger" depart="291.12" departLane="best" from="124953112#0" to="-729333701#6"/>
    <trip id="veh80" type="veh_passenger" depart="294.80" departLane="best" from="436614657#0" to="-37749587"/>
    <trip id="veh81" type="veh_passenger" depart="298.49" departLane="best" from="-124953132#4" to="436614660#0"/>
    <trip id="veh82" type="veh_passenger" depart="302.17" departLane="best" from="37749586" to="729333701#2"/>
    <trip id="veh83" type="veh_passenger" depart="305.86" departLane="best" departSpeed="max" from="128248206" to="-124953236#7"/>
    <trip id="veh84" type="veh_passenger" depart="309.54" departLane="best" from="990859405" to="391685208#0"/>
    <trip id="veh85" type="veh_passenger" depart="313.23" departLane="best" from="436614656#0" to="-655501843"/>
    <trip id="veh86" type="veh_passenger" depart="316.91" departLane="best" departSpeed="max" from="126033675" to="-25703280#1"/>
    <trip id="veh87" type="veh_passenger" depart="320.60" departLane="best" from="124953112#0" to="124953239#0"/>
    <trip id="veh88" type="veh_passenger" depart="324.28" departLane="best" from="571500824#1" to="328089355#0"/>
    <trip id="veh89" type="veh_passenger" depart="327.97" departLane="best" from="-124953236#7" to="-124953137#1"/>
    <trip id="veh90" type="veh_passenger" depart="331.65" departLane="best" from="-729333701#4" to="-990859405"/>
    <trip id="veh91" type="veh_passenger" depart="335.34" departLane="best" departSpeed="max" from="128248206" to="247093173"/>
    <trip id="veh92" type="veh_passenger" depart="339.02" departLane="best" departSpeed="max" from="-15408534#1" to="-571500824#0"/>
    <trip id="veh93" type="veh_passenger" depart="342.71" departLane="best" from="729333702" to="128248211"/>
    <trip id="veh94" type="veh_passenger" depart="346.39" departLane="best" from="978159708" to="30552450#0"/>
    <trip id="veh96" type="veh_passenger" depart="353.76" departLane="best" departSpeed="max" from="-15408534#1" to="729333701#7"/>
    <trip id="veh97" type="veh_passenger" depart="357.45" departLane="best" from="-130668791" to="-15405027#1"/>
    <trip id="veh98" type="veh_passenger" depart="361.13" departLane="best" from="-328283028#0" to="-128248212"/>
    <trip id="veh99" type="veh_passenger" depart="364.82" departLane="best" departSpeed="max" from="531317089#0" to="366244289"/>
    <trip id="veh100" type="veh_passenger" depart="368.50" departLane="best" from="130309566" to="144946682"/>
    <trip id="veh101" type="veh_passenger" depart="372.19" departLane="best" from="124953132#0" to="129334239#0"/>
    <trip id="veh102" type="veh_passenger" depart="375.87" departLane="best" departSpeed="max" from="126307536#0" to="729333701#7"/>
    <trip id="veh103" type="veh_passenger" depart="379.56" departLane="best" departSpeed="max" from="-30552450#2" to="247093173"/>
    <trip id="veh104" type="veh_passenger" depart="383.24" departLane="best" departSpeed="max" from="-328283045#1" to="124953109#0"/>
    <trip id="veh105" type="veh_passenger" depart="386.93" departLane="best" departSpeed="max" from="15391578" to="-571500824#0"/>
    <trip id="veh106" type="veh_passenger" depart="390.61" departLane="best" departSpeed="max" from="-729333701#7" to="30552450#0"/>
    <trip id="veh107" type="veh_passenger" depart="394.30" departLane="best" from="-124953239#1" to="-25703280#1"/>
    <trip id="veh108" type="veh_passenger" depart="397.98" departLane="best" from="571500824#1" to="729333701#7"/>
    <trip id="veh109" type="veh_passenger" depart="401.67" departLane="best" from="-366244289" to="204964754#0"/>
    <trip id="veh110" type="veh_passenger" depart="405.35" departLane="best" from="147361679#0" to="877816358#0"/>
    <trip id="veh111" type="veh_passenger" depart="409.04" departLane="best" departSpeed="max" from="15386921#0" to="132665217#0"/>
    <trip id="veh112" type="veh_passenger" depart="412.72" departLane="best" departSpeed="max" from="327172662" to="-571500824#0"/>
    <trip id="veh113" type="veh_passenger" depart="416.41" departLane="best" departSpeed="max" from="15390763" to="729333701#7"/>
    <trip id="veh114" type="veh_passenger" depart="420.09" departLane="best" departSpeed="max" from="-144946682" to="-128248212"/>
    <trip id="veh115" type="veh_passenger" depart="423.78" departLane="best" from="-130668791" to="128247517#0"/>
    <trip id="veh116" type="veh_passenger" depart="427.46" departLane="best" from="436614691#0" to="132665217#0"/>
    <trip id="veh117" type="veh_passenger" depart="431.15" departLane="best" from="124953216" to="204964754#0"/>
    <trip id="veh118" type="veh_passenger" depart="434.83" departLane="best" departSpeed="max" from="15386921#0" to="-387759474#1"/>
    <trip id="veh119" type="veh_passenger" depart="438.52" departLane="best" from="-391685208#1" to="-126297977#1"/>
    <trip id="veh120" type="veh_passenger" depart="442.20" departLane="best" from="124953137#0" to="391685208#0"/>
    <trip id="veh121" type="veh_passenger" depart="445.89" departLane="best" from="-1018275136#1" to="31964115"/>
    <trip id="veh122" type="veh_passenger" depart="449.57" departLane="best" departSpeed="max" from="15386921#0" to="-387759474#1"/>
    <trip id="veh123" type="veh_passenger" depart="453.26" departLane="best" from="25703263#0" to="128247517#0"/>
    <trip id="veh124" type="veh_passenger" depart="456.94" departLane="best" from="124953216" to="132665217#0"/>
    <trip id="veh126" type="veh_passenger" depart="464.31" departLane="best" from="571500824#1" to="128247517#0"/>
    <trip id="veh127" type="veh_passenger" depart="468.00" departLane="best" from="-366244289" to="129334239#0"/>
    <trip id="veh128" type="veh_passenger" depart="471.68" departLane="best" departSpeed="max" from="-15400170#3" to="656058566#0"/>
    <trip id="veh129" type="veh_passenger" depart="475.37" departLane="best" departSpeed="max" from="-729333701#7" to="655414280#0"/>
    <trip id="veh130" type="veh_passenger" depart="479.05" departLane="best" departSpeed="max" from="25775222#0" to="436614689#0"/>
    <trip id="veh131" type="veh_passenger" depart="482.74" departLane="best" departSpeed="max" from="571500824#0" to="-25703280#1"/>
    <trip id="veh132" type="veh_passenger" depart="486.42" departLane="best" from="37749586" to="-126307536#1"/>
    <trip id="veh133" type="veh_passenger" depart="490.11" departLane="best" from="25703263#0" to="655283360#0"/>
    <trip id="veh134" type="veh_passenger" depart="493.79" departLane="best" from="124953112#0" to="144946682"/>
    <trip id="veh135" type="veh_passenger" depart="497.48" departLane="best" departSpeed="max" from="-15408534#1" to="729333701#5"/>
    <trip id="veh136" type="veh_passenger" depart="501.16" departLane="best" from="436614660#0" to="764477604#1"/>
    <trip id="veh137" type="veh_passenger" depart="504.85" departLane="best" from="124953218" to="30550130#0"/>
    <trip id="veh138" type="veh_passenger" depart="508.53" departLane="best" from="-877816358#3" to="729333701#5"/>
    <trip id="veh139" type="veh_passenger" depart="512.22" departLane="best" departSpeed="max" from="25703280#0" to="-126307536#1"/>
    <trip id="veh140" type="veh_passenger" depart="515.90" departLane="best" from="436614691#0" to="25703263#0"/>
    <trip id="veh141" type="veh_passenger" depart="519.59" departLane="best" departSpeed="max" from="-328089355#1" to="328283045#0"/>
    <trip id="veh142" type="veh_passenger" depart="523.27" departLane="best" from="124953238" to="-571500824#1"/>
    <trip id="veh143" type="veh_passenger" depart="526.96" departLane="best" departSpeed="max" from="25775222#0" to="-327172661#2"/>
    <trip id="veh144" type="veh_passenger" depart="530.64" departLane="best" from="-124953218" to="-15405027#1"/>
    <trip id="veh145" type="veh_passenger" depart="534.33" departLane="best" departSpeed="max" from="-764477604#1" to="-655283348"/>
    <trip id="veh146" type="veh_passenger" depart="538.01" departLane="best" from="-1358673130" to="436614660#0"/>
    <trip id="veh147" type="veh_passenger" depart="541.70" departLane="best" departSpeed="max" from="15386921#0" to="124953111#0"/>
    <trip id="veh148" type="veh_passenger" depart="545.38" departLane="best" from="898450863" to="-131281647#1"/>
    <trip id="veh149" type="veh_passenger" depart="549.07" departLane="best" from="655637400" to="-128248212"/>
    <trip id="veh150" type="veh_passenger" depart="552.75" departLane="best" from="729333702" to="-15396082"/>
    <trip id="veh151" type="veh_passenger" depart="556.44" departLane="best" from="126307525" to="-124953218"/>
    <trip id="veh152" type="veh_passenger" depart="560.12" departLane="best" departSpeed="max" from="15399066#0" to="-655414277#1"/>
    <trip id="veh153" type="veh_passenger" depart="563.81" departLane="best" from="-201680476#1" to="124953129#0"/>
    <trip id="veh154" type="veh_passenger" depart="567.49" departLane="best" departSpeed="max" from="1095943082#0" to="128248211"/>
    <trip id="veh155" type="veh_passenger" depart="571.18" departLane="best" from="-387759474#2" to="238146427#1"/>
    <trip id="veh156" type="veh_passenger" depart="574.86" departLane="best" from="-1018275136#1" to="729333701#2"/>
    <trip id="veh157" type="veh_passenger" depart="578.55" departLane="best" departSpeed="max" from="126307536#0" to="247093173"/>
    <trip id="veh158" type="veh_passenger" depart="582.23" departLane="best" from="25703263#0" to="-15399066#2"/>
    <trip id="veh159" type="veh_passenger" depart="585.92" departLane="best" departSpeed="max" from="15390763" to="729333701#0"/>
    <trip id="veh160" type="veh_passenger" depart="589.60" departLane="best" departSpeed="max" from="-729333701#7" to="436614657#0"/>
    <trip id="veh161" type="veh_passenger" depart="593.29" departLane="best" departSpeed="max" from="-729333701#7" to="124953117#0"/>
    <trip id="veh162" type="veh_passenger" depart="596.97" departLane="best" from="124953112#0" to="-571500824#0"/>
    <trip id="veh163" type="veh_passenger" depart="600.66" departLane="best" departSpeed="max" from="-144946682" to="124953132#3"/>
    <trip id="veh164" type="veh_passenger" depart="604.34" departLane="best" from="655637400" to="-15405027#4"/>
    <trip id="veh165" type="veh_passenger" depart="608.03" departLane="best" from="571500824#1" to="144946682"/>
    <trip id="veh166" type="veh_passenger" depart="611.71" departLane="best" departSpeed="max" from="-729333701#7" to="128247517#0"/>
    <trip id="veh167" type="veh_passenger" depart="615.40" departLane="best" from="179592387#1" to="-531317089#2"/>
    <trip id="veh168" type="veh_passenger" depart="619.08" departLane="best" from="-124953220" to="128248211"/>
    <trip id="veh169" type="veh_passenger" depart="622.77" departLane="best" from="15387933#0" to="124953234#0"/>
    <trip id="veh170" type="veh_passenger" depart="626.45" departLane="best" from="-124953234#1" to="-25703280#1"/>
    <trip id="veh171" type="veh_passenger" depart="630.14" departLane="best" departSpeed="max" from="126033675" to="-655414280#1"/>
    <trip id="veh172" type="veh_passenger" depart="633.82" departLane="best" departSpeed="max" from="25775222#0" to="-15395049#0"/>
    <trip id="veh174" type="veh_passenger" depart="641.19" departLane="best" departSpeed="max" from="15386921#0" to="729333701#2"/>
    <trip id="veh175" type="veh_passenger" depart="644.88" departLane="best" departSpeed="max" from="327172662" to="30552450#0"/>
    <trip id="veh176" type="veh_passenger" depart="648.56" departLane="best" departSpeed="max" from="15391578" to="-327172651#1"/>
    <trip id="veh177" type="veh_passenger" depart="652.25" departLane="best" departSpeed="max" from="-30552450#2" to="-124953218"/>
    <trip id="veh178" type="veh_passenger" depart="655.93" departLane="best" departSpeed="max" from="-328283045#1" to="124953234#3"/>
    <trip id="veh179" type="veh_passenger" depart="659.62" departLane="best" from="436614656#0" to="-124953704"/>
    <trip id="veh180" type="veh_passenger" depart="663.30" departLane="best" from="124953129#1" to="15376859#1"/>
    <trip id="veh182" type="veh_passenger" depart="670.67" departLane="best" from="15387933#0" to="-1084562944"/>
    <trip id="veh183" type="veh_passenger" depart="674.36" departLane="best" from="-204964754#1" to="31964115"/>
    <trip id="veh184" type="veh_passenger" depart="678.04" departLane="best" from="-130668791" to="124953216"/>
    <trip id="veh185" type="veh_passenger" depart="681.73" departLane="best" from="-204964754#2" to="729333701#7"/>
    <trip id="veh186" type="veh_passenger" depart="685.41" departLane="best" departSpeed="max" from="126307536#0" to="124953236#5"/>
    <trip id="veh187" type="veh_passenger" depart="689.10" departLane="best" from="-366244289" to="436614657#0"/>
    <trip id="veh188" type="veh_passenger" depart="692.78" departLane="best" from="124953236#5" to="328283027#2"/>
    <trip id="veh189" type="veh_passenger" depart="696.47" departLane="best" departSpeed="max" from="15391578" to="877816358#2"/>
    <trip id="veh190" type="veh_passenger" depart="700.15" departLane="best" from="-130668791" to="729333701#7"/>
    <trip id="veh191" type="veh_passenger" depart="703.84" departLane="best" from="15396083" to="124953239#0"/>
    <trip id="veh192" type="veh_passenger" depart="707.52" departLane="best" from="328283028#1" to="128247517#0"/>
    <trip id="veh193" type="veh_passenger" depart="711.21" departLane="best" departSpeed="max" from="571500824#0" to="30550130#0"/>
    <trip id="veh194" type="veh_passenger" depart="714.89" departLane="best" departSpeed="max" from="126033675" to="-37749594"/>
    <trip id="veh196" type="veh_passenger" depart="722.26" departLane="best" departSpeed="max" from="15386921#0" to="391685208#0"/>
    <trip id="veh197" type="veh_passenger" depart="725.95" departLane="best" from="436614691#0" to="655414280#0"/>
    <trip id="veh199" type="veh_passenger" depart="733.32" departLane="best" from="124953117#0" to="128247517#0"/>
    <trip id="veh200" type="veh_passenger" depart="737.00" departLane="best" from="124953129#2" to="204964754#2"/>
    <trip id="veh201" type="veh_passenger" depart="740.69" departLane="best" from="124953132#0" to="655637400"/>
    <trip id="veh203" type="veh_passenger" depart="748.06" departLane="best" from="436614657#0" to="31961202#1"/>
    <trip id="veh204" type="veh_passenger" depart="751.74" departLane="best" from="1055017048" to="30552450#0"/>
    <trip id="veh205" type="veh_passenger" depart="755.43" departLane="best" from="436614656#0" to="729333701#7"/>
    <trip id="veh206" type="veh_passenger" depart="759.11" departLane="best" from="124953132#0" to="30552450#0"/>
    <trip id="veh207" type="veh_passenger" depart="762.80" departLane="best" from="128248205" to="132665217#0"/>
    <trip id="veh208" type="veh_passenger" depart="766.48" departLane="best" departSpeed="max" from="-328089355#1" to="-25703280#1"/>
    <trip id="veh209" type="veh_passenger" depart="770.17" departLane="best" from="990859405" to="15408534#0"/>
    <trip id="veh210" type="veh_passenger" depart="773.85" departLane="best" from="124953112#0" to="-655501843"/>
    <trip id="veh211" type="veh_passenger" depart="777.54" departLane="best" from="124953703#2" to="656058566#0"/>
    <trip id="veh212" type="veh_passenger" depart="781.22" departLane="best" from="-1358673132" to="124953217"/>
    <trip id="veh213" type="veh_passenger" depart="784.91" departLane="best" from="1096973326" to="128248205"/>
    <trip id="veh214" type="veh_passenger" depart="788.59" departLane="best" from="-15379430" to="124953234#0"/>
    <trip id="veh215" type="veh_passenger" depart="792.28" departLane="best" departSpeed="max" from="-124953234#7" to="1055017048"/>
    <trip id="veh216" type="veh_passenger" depart="795.96" departLane="best" from="327172660" to="-655501843"/>
    <trip id="veh217" type="veh_passenger" depart="799.65" departLane="best" departSpeed="max" from="238146427#0" to="1055017048"/>
    <trip id="veh218" type="veh_passenger" depart="803.33" departLane="best" from="-204964754#1" to="-391685208#1"/>
    <trip id="veh220" type="veh_passenger" depart="810.70" departLane="best" from="124953216" to="126307540"/>
    <trip id="veh221" type="veh_passenger" depart="814.39" departLane="best" departSpeed="max" from="15386921#0" to="328089355#0"/>
    <trip id="veh222" type="veh_passenger" depart="818.07" departLane="best" departSpeed="max" from="15386921#0" to="30552450#0"/>
    <trip id="veh223" type="veh_passenger" depart="821.76" departLane="best" from="729333701#0" to="-201680476#1"/>
    <trip id="veh224" type="veh_passenger" depart="825.44" departLane="best" from="-124953216" to="-1357861982#1"/>
    <trip id="veh225" type="veh_passenger" depart="829.13" departLane="best" departSpeed="max" from="-144946682" to="-15399066#2"/>
    <trip id="veh226" type="veh_passenger" depart="832.81" departLane="best" departSpeed="max" from="128248206" to="-25703280#1"/>
    <trip id="veh227" type="veh_passenger" depart="836.50" departLane="best" from="15394751#4" to="31961202#1"/>
    <trip id="veh228" type="veh_passenger" depart="840.18" departLane="best" from="126307525" to="-124953218"/>
    <trip id="veh229" type="veh_passenger" depart="843.87" departLane="best" departSpeed="max" from="-729333701#7" to="15405027#2"/>
    <trip id="veh230" type="veh_passenger" depart="847.55" departLane="best" from="-729333701#4" to="124953109#0"/>
    <trip id="veh231" type="veh_passenger" depart="851.24" departLane="best" from="436614656#0" to="130668791"/>
    <trip id="veh232" type="veh_passenger" depart="854.92" departLane="best" departSpeed="max" from="25703280#0" to="877816358#2"/>
    <trip id="veh233" type="veh_passenger" depart="858.61" departLane="best" from="124953217" to="1053953311"/>
    <trip id="veh234" type="veh_passenger" depart="862.29" departLane="best" from="126297977#2" to="-729333701#6"/>
    <trip id="veh235" type="veh_passenger" depart="865.98" departLane="best" from="436614656#0" to="366244289"/>
    <trip id="veh236" type="veh_passenger" depart="869.66" departLane="best" from="-130668791" to="729333701#7"/>
    <trip id="veh237" type="veh_passenger" depart="873.35" departLane="best" departSpeed="max" from="15386921#0" to="387759474#0"/>
    <trip id="veh238" type="veh_passenger" depart="877.03" departLane="best" departSpeed="max" from="15395049#0" to="124953218"/>
    <trip id="veh239" type="veh_passenger" depart="880.72" departLane="best" from="15400170#0" to="729333702"/>
    <trip id="veh240" type="veh_passenger" depart="884.40" departLane="best" from="436614691#0" to="328283028#1"/>
    <trip id="veh241" type="veh_passenger" depart="888.09" departLane="best" departSpeed="max" from="126307536#0" to="124953234#3"/>