<?xml version="1.0" encoding="UTF-8"?>

<!-- generated on 2025-06-02 00:26:47.240453 by script.py UNKNOWN
<configuration>
    <net-file value="osm_network/osm.net.xml.gz"/>
    <route-file value="randomroutes.rou.xml"/>
    <prefix value="veh"/>
    <trip-attributes value="departLane=&quot;best&quot; departPos=&quot;random&quot; arrivalPos=&quot;random&quot; type=&quot;rerouting&quot;"/>
    <fringe-start-attributes value="departSpeed=&quot;max&quot;"/>
    <length value="True"/>
    <lanes value="True"/>
    <allow-fringe.min-length value="1000.0"/>
    <via-edge-types value="highway.motorway,highway.motorway_link,highway.trunk_link,highway.primary_link,highway.secondary_link,highway.tertiary_link"/>
    <random value="True"/>
    <min-distance value="2.0"/>
    <min-distance.fringe value="10.0"/>
    <remove-loops value="True"/>
    <validate value="True"/>
    <end value="300.0"/>
    <insertion-density value="200.0"/>
    <random-depart value="True"/>
</configuration>
-->

<!-- generated on 2025-06-02 00:26:47 by Eclipse SUMO duarouter Version 1.19.0
<configuration xmlns:xsi="http://www.w3.org/2001/XMLSchema-instance" xsi:noNamespaceSchemaLocation="http://sumo.dlr.de/xsd/duarouterConfiguration.xsd">

    <input>
        <net-file value="osm_network/osm.net.xml.gz"/>
        <route-files value="trips.trips.xml"/>
    </input>

    <output>
        <output-file value="randomroutes.rou.xml"/>
        <alternatives-output value="NUL"/>
    </output>

    <processing>
        <remove-loops value="true"/>
    </processing>

    <time>
        <begin value="0"/>
        <end value="300.0"/>
    </time>

    <report>
        <no-warnings value="true"/>
        <ignore-errors value="true"/>
        <no-step-log value="true"/>
    </report>

</configuration>
-->

<routes xmlns:xsi="http://www.w3.org/2001/XMLSchema-instance" xsi:noNamespaceSchemaLocation="http://sumo.dlr.de/xsd/routes_file.xsd">
    <vehicle id="veh0" type="rerouting" depart="0.23" departLane="best" departPos="random" departSpeed="max" arrivalPos="random">
        <route edges="-315821985#4 -436613328#1 -143948165#1 -436613327#1 -204981553#4 1096737354#0 204981554#0 204981554#3 973936238#0 144469638#0 1352941069#0 204974723#0 204974723#4 30511389#5"/>
    </vehicle>
    <vehicle id="veh1" type="rerouting" depart="1.07" departLane="best" departPos="random" arrivalPos="random">
        <route edges="655501852#0 1352941068#0 1352941069#0 204974723#0 -15382769#3 129170700#0"/>
    </vehicle>
    <vehicle id="veh2" type="rerouting" depart="1.33" departLane="best" departPos="random" arrivalPos="random">
        <route edges="422088229#0 204981554#0 204981554#3 973936238#0 144469638#0 1352941069#0 204974723#0 15382769#4 321870323#0"/>
    </vehicle>
    <vehicle id="veh3" type="rerouting" depart="1.85" departLane="best" departPos="random" arrivalPos="random">
        <route edges="-204998668#2 -1021936033#14 -1021936033#10 -1021936033#5 -1021936034#1 -1024443344#2"/>
    </vehicle>
    <vehicle id="veh4" type="rerouting" depart="1.85" departLane="best" departPos="random" arrivalPos="random">
        <route edges="-1024443344#2 -436614757#1 -968033523#1 -1008898690#1 -204974723#19 -204974723#13 -204974723#8 -204974723#3 -1352941069#2 -655501850 -655501852#4 -314612912#3 655501854#0 204974728#0"/>
    </vehicle>
    <vehicle id="veh5" type="rerouting" depart="3.07" departLane="best" departPos="random" arrivalPos="random">
        <route edges="143978649 656122436#0"/>
    </vehicle>
    <vehicle id="veh6" type="rerouting" depart="4.47" departLane="best" departPos="random" arrivalPos="random">
        <route edges="655501852#0 1352941068#0 1352941069#0 204974723#0 204974723#4 30511389#5 141161580#0"/>
    </vehicle>
    <vehicle id="veh7" type="rerouting" depart="5.14" departLane="best" departPos="random" arrivalPos="random">
        <route edges="1275468370#0 37749560#0 37749560#5 15377309#0 655501852#0 1352941068#0 655501853#0 1095943089#0"/>
    </vehicle>
    <vehicle id="veh8" type="rerouting" depart="6.01" departLane="best" departPos="random" arrivalPos="random">
        <route edges="15404286#0 204998678#0 764593067#0 436617513#0 204981554#3 973936238#0 144469638#0 655501853#0 655501857#0 37020142#0 989393067#0"/>
    </vehicle>
    <vehicle id="veh9" type="rerouting" depart="6.93" departLane="best" departPos="random" arrivalPos="random">
        <route edges="30511389#0 -204974723#8 -204974723#3 130624549#0 30756754#0 891734324#0 144469638#0"/>
    </vehicle>
    <vehicle id="veh10" type="rerouting" depart="7.03" departLane="best" departPos="random" arrivalPos="random">
        <route edges="130624544#0 1095943089#0 1352941067#0 1352941068#0 1352941069#0 204974723#0 204974723#4 204974723#9 15381973#4 656122436#5"/>
    </vehicle>
    <vehicle id="veh11" type="rerouting" depart="7.11" departLane="best" departPos="random" arrivalPos="random">
        <route edges="436617520#0 1021936032#3 32065533#4 30602326#0 30148740#0 1096737354#0 1034053457#0 655283392#0 1275468369#0 1275468370#0 37749560#0 37749560#5 15377309#0 204974799#0 204974801#0"/>
    </vehicle>
    <vehicle id="veh12" type="rerouting" depart="7.42" departLane="best" departPos="random" arrivalPos="random">
        <route edges="204981568#0 764593074#1 436617520#0 -1021936032#2 -1035976914#1 -1136660021#1 -1136660020"/>
    </vehicle>
    <vehicle id="veh13" type="rerouting" depart="7.92" departLane="best" departPos="random" arrivalPos="random">
        <route edges="-204981553#4 1096737354#0 1034053457#0 655283392#0 1275468369#0 1275468370#0 37749560#0 37749560#5 15377309#0 655501852#0"/>
    </vehicle>
    <vehicle id="veh14" type="rerouting" depart="10.46" departLane="best" departPos="random" arrivalPos="random">
        <route edges="655501852#0 1352941068#0 655501853#0 655501857#0"/>
    </vehicle>
    <vehicle id="veh15" type="rerouting" depart="10.48" departLane="best" departPos="random" arrivalPos="random">
        <route edges="141161580#0 -15382769#6 204974723#4 -30511389#4 204964687#0"/>
    </vehicle>
    <vehicle id="veh16" type="rerouting" depart="10.59" departLane="best" departPos="random" arrivalPos="random">
        <route edges="130624544#0 1095943089#0 1352941067#0 1352941068#0 1352941069#0 204974723#0 204974723#4 204974723#9 -15381973#3"/>
    </vehicle>
    <vehicle id="veh17" type="rerouting" depart="10.65" departLane="best" departPos="random" departSpeed="max" arrivalPos="random">
        <route edges="204999703#0 204999708#0 436616716#0 315821985#0 315904408#0 422088229#0 204981554#0 204981554#3 973936238#0 144469638#0 1352941069#0 204974723#0 204974723#4 204974723#9 15381973#4 15381973#7 1057173372#0 141161581#0 15396293"/>
    </vehicle>
    <vehicle id="veh18" type="rerouting" depart="11.47" departLane="best" departPos="random" arrivalPos="random">
        <route edges="15388175#0 204998668#0 207524116#0 973936238#0 144469638#0 655501853#0 655501857#0 37020142#0 989393068#0 -989393068#3 -40526566#4 655283390#2"/>
    </vehicle>
    <vehicle id="veh19" type="rerouting" depart="12.21" departLane="best" departPos="random" arrivalPos="random">
        <route edges="-129170700#3 -204964687#4 -143978650#3 -1136660021#1 -1136660020 15378911#0"/>
    </vehicle>
    <vehicle id="veh20" type="rerouting" depart="12.92" departLane="best" departPos="random" arrivalPos="random">
        <route edges="1275468369#0 1275468370#0 37749560#0 37749560#5 15377309#0 655501852#0 1352941068#0 1352941069#0 204974723#0"/>
    </vehicle>
    <vehicle id="veh21" type="rerouting" depart="13.86" departLane="best" departPos="random" arrivalPos="random">
        <route edges="15377309#0 204974799#0 204974801#0 655283396#0 436625345#0 655283394#0 1352941067#0"/>
    </vehicle>
    <vehicle id="veh22" type="rerouting" depart="13.92" departLane="best" departPos="random" arrivalPos="random">
        <route edges="-655501844#2 144469638#0 1352941069#0 204974723#0 204974723#4 204974723#9 204974723#14 -1008898689#1 -153128296 153128297#0 656122436#0"/>
    </vehicle>
    <vehicle id="veh23" type="rerouting" depart="14.32" departLane="best" departPos="random" arrivalPos="random">
        <route edges="-1024443344#2 436624321#0 1136660021#0 143978650#0 -275398021#2"/>
    </vehicle>
    <vehicle id="veh24" type="rerouting" depart="15.46" departLane="best" departPos="random" arrivalPos="random">
        <route edges="-968033523#1 -1008898690#1 -204974723#19 -204974723#13 30511389#5 1133338426#0 436615692#0"/>
    </vehicle>
    <vehicle id="veh25" type="rerouting" depart="15.69" departLane="best" departPos="random" arrivalPos="random">
        <route edges="-1024443344#2 -436614757#1 -968033523#1 -1008898690#1 -204974723#19 15381973#4 15381973#7"/>
    </vehicle>
    <vehicle id="veh26" type="rerouting" depart="15.70" departLane="best" departPos="random" arrivalPos="random">
        <route edges="-968033523#1 -1008898690#1 -204974723#19 -204974723#13 -204974723#8 -204974723#3 -1352941069#2 -655501850 201680484#0 -204974728#5 15377309#0"/>
    </vehicle>
    <vehicle id="veh27" type="rerouting" depart="16.37" departLane="best" departPos="random" departSpeed="max" arrivalPos="random">
        <route edges="-41287628#2 -41287628#1 655283396#0 436625345#0 655283394#0 1352941067#0 1352941068#0 1352941069#0 204974723#0 204974723#4 204974723#9 204974723#14 1008898690#0 968033523#0"/>
    </vehicle>
    <vehicle id="veh28" type="rerouting" depart="17.14" departLane="best" departPos="random" arrivalPos="random">
        <route edges="204981568#0 -30148684#4 30602326#0 30148740#0 1096737354#0 1034053457#0 655283392#0 1275468369#0 1275468370#0 201680483#0"/>
    </vehicle>
    <vehicle id="veh29" type="rerouting" depart="17.37" departLane="best" departPos="random" arrivalPos="random">
        <route edges="1034331492#0 130624549#0 15388175#0 1377709445#0 204998675#0 436617517#0 204981568#0 30148684#5"/>
    </vehicle>
    <vehicle id="veh30" type="rerouting" depart="17.47" departLane="best" departPos="random" arrivalPos="random">
        <route edges="204981568#0 30148684#5 275398021#0 30511389#0 -204974723#8 -204974723#3 -1352941069#2 -655501850"/>
    </vehicle>
    <vehicle id="veh31" type="rerouting" depart="17.62" departLane="best" departPos="random" arrivalPos="random">
        <route edges="764593074#1 436617520#0 -1021936032#2 -1035976914#1 15381973#0 15381973#4"/>
    </vehicle>
    <vehicle id="veh33" type="rerouting" depart="18.92" departLane="best" departPos="random" arrivalPos="random">
        <route edges="436617518#0 -204998675#1 -1377709445#1 204998668#0 207524116#0 973936238#0 144469638#0 655501853#0 655501857#0"/>
    </vehicle>
    <vehicle id="veh34" type="rerouting" depart="19.30" departLane="best" departPos="random" arrivalPos="random">
        <route edges="-30511389#7 -204974723#8 -204974723#3 130624549#0 15388175#0 1377709445#0 204998675#0 204981553#0 204981553#3 436613327#0 143948165#0 436613328#0 -436616716#1"/>
    </vehicle>
    <vehicle id="veh35" type="rerouting" depart="19.35" departLane="best" departPos="random" arrivalPos="random">
        <route edges="655501854#0 204974728#0 15377309#0 655501852#0 1352941068#0 1352941069#0 204974723#0 -15382769#3"/>
    </vehicle>
    <vehicle id="veh36" type="rerouting" depart="19.68" departLane="best" departPos="random" arrivalPos="random">
        <route edges="-968033523#1 -1008898690#1 -204974723#19 -204974723#13 -204974723#8 -204974723#3 -1352941069#2 -655501850 201680484#0 15404286#0 204998669#0 204998669#4"/>
    </vehicle>
    <vehicle id="veh37" type="rerouting" depart="19.84" departLane="best" departPos="random" arrivalPos="random">
        <route edges="-275398021#2 -30148684#7 -30148684#4 30602326#0 30148740#0 1096737354#0 1034053457#0 655283392#0 1275468369#0 1275468371#0 204981569#0 204981569#2 1040752719#0"/>
    </vehicle>
    <vehicle id="veh38" type="rerouting" depart="21.33" departLane="best" departPos="random" arrivalPos="random">
        <route edges="436613537#0 1034331492#0 -1352941069#2 -655501850 201680484#0 15404286#0 204998669#0 204998669#4 15383474#6"/>
    </vehicle>
    <vehicle id="veh39" type="rerouting" depart="21.49" departLane="best" departPos="random" arrivalPos="random">
        <route edges="-129170700#3 204999701#0 30756754#0"/>
    </vehicle>
    <vehicle id="veh40" type="rerouting" depart="21.55" departLane="best" departPos="random" arrivalPos="random">
        <route edges="656122436#0 -15381973#6 -204974723#13 -204974723#8 -204974723#3 -1352941069#2 -655501850 201680484#0 15404286#0 204998678#0 764593068#0 1275468369#0 1275468371#0 204981569#0 172814612#0"/>
    </vehicle>
    <vehicle id="veh41" type="rerouting" depart="21.85" departLane="best" departPos="random" arrivalPos="random">
        <route edges="15377309#0 655501852#0 201680484#0 15404286#0 204998678#0 764593068#0"/>
    </vehicle>
    <vehicle id="veh42" type="rerouting" depart="21.99" departLane="best" departPos="random" departSpeed="max" arrivalPos="random">
        <route edges="436612060#0 818448445#2 328078187#0 1040752718#2"/>
    </vehicle>
    <vehicle id="veh43" type="rerouting" depart="22.09" departLane="best" departPos="random" arrivalPos="random">
        <route edges="40526566#0 989393068#0 27401240#0 655283394#0 1352941067#0 201680484#0 -204974728#5 15377309#0"/>
    </vehicle>
    <vehicle id="veh44" type="rerouting" depart="22.46" departLane="best" departPos="random" arrivalPos="random">
        <route edges="422088229#0 204981554#0 204981554#3 973936238#0 144469638#0 655501853#0 655501857#0"/>
    </vehicle>
    <vehicle id="veh45" type="rerouting" depart="23.45" departLane="best" departPos="random" arrivalPos="random">
        <route edges="130624544#0 1095943089#0 1352941067#0 201680484#0 15404286#0 204998678#0 764593068#0 1275468369#0 1275468371#0 204981569#0 204981569#2 1040752719#0"/>
    </vehicle>
    <vehicle id="veh46" type="rerouting" depart="23.48" departLane="best" departPos="random" arrivalPos="random">
        <route edges="-818448445#1 -422088248#3 422088229#0 204981554#0"/>
    </vehicle>
    <vehicle id="veh47" type="rerouting" depart="23.48" departLane="best" departPos="random" arrivalPos="random">
        <route edges="1275468370#0 201680483#0 764593067#0 436617513#0 436617518#0 204981553#0 204981553#3 436613327#0 143948165#0 436613328#0 315821985#0 315904408#0"/>
    </vehicle>
    <vehicle id="veh48" type="rerouting" depart="24.05" departLane="best" departPos="random" arrivalPos="random">
        <route edges="436617518#0 -204998675#1 -1377709445#1 204998668#0 207524116#0 973936238#0 144469638#0 655501853#0 655501857#0 37020142#0"/>
    </vehicle>
    <vehicle id="veh49" type="rerouting" depart="24.17" departLane="best" departPos="random" arrivalPos="random">
        <route edges="15388175#0 1377709445#0 204998675#0 204981553#0 1096737354#0 1034053457#0 655283392#0 1275468369#0 1275468371#0 204981569#0 172814612#0 328078179"/>
    </vehicle>
    <vehicle id="veh50" type="rerouting" depart="24.45" departLane="best" departPos="random" arrivalPos="random">
        <route edges="655283394#0 1352941067#0 -655501852#4"/>
    </vehicle>
    <vehicle id="veh51" type="rerouting" depart="25.42" departLane="best" departPos="random" departSpeed="max" arrivalPos="random">
        <route edges="655283390#0 655283390#2 436613537#0 1034331492#0 130624549#0 15388175#0 -1021936033#14 -1021936033#10"/>
    </vehicle>
    <vehicle id="veh52" type="rerouting" depart="25.65" departLane="best" departPos="random" departSpeed="max" arrivalPos="random">
        <route edges="655283390#0 40526566#0 989393068#0"/>
    </vehicle>
    <vehicle id="veh53" type="rerouting" depart="26.37" departLane="best" departPos="random" departSpeed="max" arrivalPos="random">
        <route edges="655283390#0 655283390#2 436613537#0 1034331492#0 -1352941069#2 -655501850 -655501852#4 -314612912#3 655501854#0"/>
    </vehicle>
    <vehicle id="veh54" type="rerouting" depart="26.38" departLane="best" departPos="random" arrivalPos="random">
        <route edges="15381973#0 -204974723#13 -204974723#8 -204974723#3 -1352941069#2 -655501850"/>
    </vehicle>
    <vehicle id="veh55" type="rerouting" depart="26.78" departLane="best" departPos="random" arrivalPos="random">
        <route edges="-436614757#1 -968033523#1 -1008898690#1 -204974723#19 -204974723#13 30511389#5 1133338426#0"/>
    </vehicle>
    <vehicle id="veh56" type="rerouting" depart="27.11" departLane="best" departPos="random" arrivalPos="random">
        <route edges="655283350#0 -1133338426#2 -30511389#7 -204974723#8 -204974723#3 130624549#0 15388175#0 1377709445#0"/>
    </vehicle>
    <vehicle id="veh57" type="rerouting" depart="29.28" departLane="best" departPos="random" arrivalPos="random">
        <route edges="422088229#0 1034053457#0 655283392#0 1275468369#0 1275468370#0 37749560#0 37749560#5 15377309#0 204974799#0 204974801#0 655283396#0 436625345#0 201680470#0"/>
    </vehicle>
    <vehicle id="veh58" type="rerouting" depart="29.81" departLane="best" departPos="random" arrivalPos="random">
        <route edges="-1136660020 -436614757#1 -968033523#1 -1008898690#1 -204974723#19 -204974723#13 -204974723#8 -204974723#3 -1352941069#2 -655501850 201680484#0 15404286#0 204998678#0 764593067#0 436617513#0 204981554#3"/>
    </vehicle>
    <vehicle id="veh59" type="rerouting" depart="30.45" departLane="best" departPos="random" arrivalPos="random">
        <route edges="1275468370#0 201680483#0 764593067#0 436617513#0 436617518#0 436617517#0 204981568#0 764593074#1 436617520#0 436617516#0 -436614752#1 -204964699#1 -1024443344#2"/>
    </vehicle>
    <vehicle id="veh60" type="rerouting" depart="30.52" departLane="best" departPos="random" arrivalPos="random">
        <route edges="-15381973#9 656122436#5 1133338426#0"/>
    </vehicle>
    <vehicle id="veh61" type="rerouting" depart="30.57" departLane="best" departPos="random" departSpeed="max" arrivalPos="random">
        <route edges="436612060#0 436612060#2 1275468371#0 204981569#0 204981569#2 1040752719#0"/>
    </vehicle>
    <vehicle id="veh62" type="rerouting" depart="30.80" departLane="best" departPos="random" arrivalPos="random">
        <route edges="655501857#0 37020142#0 989393068#0 27401240#0 655283394#0 655283395#0"/>
    </vehicle>
    <vehicle id="veh63" type="rerouting" depart="31.84" departLane="best" departPos="random" arrivalPos="random">
        <route edges="204964687#0 204999701#0 15388175#0 204998668#0 207524116#0 328078178#0 204998669#0 204998669#4 204998669#8"/>
    </vehicle>
    <vehicle id="veh64" type="rerouting" depart="32.17" departLane="best" departPos="random" departSpeed="max" arrivalPos="random">
        <route edges="436742892#0 143978649 144897554#0 153128296 1008898689#0 -204974723#19 -15381973#3 15398167#0"/>
    </vehicle>
    <vehicle id="veh65" type="rerouting" depart="32.41" departLane="best" departPos="random" arrivalPos="random">
        <route edges="-1133338426#2 -30511389#7 204974723#9 204974723#14 1008898690#0 968033523#0 436614757#0"/>
    </vehicle>
    <vehicle id="veh66" type="rerouting" depart="32.63" departLane="best" departPos="random" arrivalPos="random">
        <route edges="315904408#0 422088229#0 204981554#0 204981554#3 973936238#0 144469638#0 655501853#0 1095943089#0"/>
    </vehicle>
    <vehicle id="veh67" type="rerouting" depart="33.04" departLane="best" departPos="random" departSpeed="max" arrivalPos="random">
        <route edges="15398110#0 32065527#0 1021936033#0 1021936033#6 1021936033#11 204998668#0 207524116#0 328078178#0 204998678#0"/>
    </vehicle>
    <vehicle id="veh68" type="rerouting" depart="33.20" departLane="best" departPos="random" arrivalPos="random">
        <route edges="-436613327#1 -204981553#4 1096737354#0 1034053457#0 655283392#0 1275468369#0 1275468370#0 37749560#0 37749560#5 15377309#0 204974799#0 204974801#0 41287628#0"/>
    </vehicle>
    <vehicle id="veh69" type="rerouting" depart="33.98" departLane="best" departPos="random" departSpeed="max" arrivalPos="random">
        <route edges="655283390#0 655283390#2 436613537#0 1034331492#0 204974723#0 204974723#4 -30511389#4 -143978650#3"/>
    </vehicle>
    <vehicle id="veh70" type="rerouting" depart="34.48" departLane="best" departPos="random" arrivalPos="random">
        <route edges="144897554#0 153128296 1008898689#0 -204974723#19 -204974723#13 30511389#5 1133338426#0"/>
    </vehicle>
    <vehicle id="veh71" type="rerouting" depart="36.57" departLane="best" departPos="random" arrivalPos="random">
        <route edges="130624540#0 1358681357 436613537#0 1034331492#0 -1352941069#2 -655501850 -655501852#4"/>
    </vehicle>
    <vehicle id="veh72" type="rerouting" depart="36.67" departLane="best" departPos="random" arrivalPos="random">
        <route edges="422088229#0 204981554#0 204981554#3 973936238#0 144469638#0 -655501850 201680484#0"/>
    </vehicle>
    <vehicle id="veh73" type="rerouting" depart="36.99" departLane="best" departPos="random" arrivalPos="random">
        <route edges="141161580#0 321870323#0 1034331492#0 -1352941069#2 -655501850 201680484#0 15404286#0 204998678#0 764593068#0 1275468369#0 1275468371#0"/>
    </vehicle>
    <vehicle id="veh74" type="rerouting" depart="37.10" departLane="best" departPos="random" arrivalPos="random">
        <route edges="201680483#0 764593067#0 436617513#0 204981554#3 973936238#0 -891734324#1 -30756754#1"/>
    </vehicle>
    <vehicle id="veh75" type="rerouting" depart="37.21" departLane="best" departPos="random" arrivalPos="random">
        <route edges="655501854#0 15383474#0 15383474#6 436617523#5 436617519#0 201680483#0 764593067#0 436617513#0 436617518#0 436617517#0 263361802#0"/>
    </vehicle>
    <vehicle id="veh76" type="rerouting" depart="37.88" departLane="best" departPos="random" arrivalPos="random">
        <route edges="15378911#0 32065527#0 1021936033#0 1021936033#6 1021936033#11 204998668#0 207524116#0 328078178#0 204998678#0 764593067#0"/>
    </vehicle>
    <vehicle id="veh77" type="rerouting" depart="38.00" departLane="best" departPos="random" departSpeed="max" arrivalPos="random">
        <route edges="1052934458#0 655283396#0 436625345#0 655283394#0 1352941067#0 201680484#0 -204974728#5 -204974728#2 15383474#0"/>
    </vehicle>
    <vehicle id="veh78" type="rerouting" depart="38.09" departLane="best" departPos="random" arrivalPos="random">
        <route edges="328078178#0 204998678#0 764593067#0 436617513#0 436617518#0 436617517#0"/>
    </vehicle>
    <vehicle id="veh79" type="rerouting" depart="38.40" departLane="best" departPos="random" arrivalPos="random">
        <route edges="-1136660021#1 -1136660020 -436614757#1 -968033523#1 -1008898690#1 -204974723#19 -204974723#13 -204974723#8 -204974723#3 -1352941069#2 -655501850 201680484#0 -204974728#5"/>
    </vehicle>
    <vehicle id="veh80" type="rerouting" depart="38.45" departLane="best" departPos="random" arrivalPos="random">
        <route edges="436615692#0 -15381973#9 -15381973#6 -204974723#13 -204974723#8 -204974723#3 -1352941069#2 -655501850 201680484#0 15404286#0 204998678#0 764593068#0 655283393#0"/>
    </vehicle>
    <vehicle id="veh81" type="rerouting" depart="38.75" departLane="best" departPos="random" arrivalPos="random">
        <route edges="15378911#0 32065527#0 1021936033#0 1021936033#6 1021936033#11 204998668#0 207524116#0 328078178#0 204998669#0 204998669#4 15383474#6"/>
    </vehicle>
    <vehicle id="veh82" type="rerouting" depart="41.58" departLane="best" departPos="random" arrivalPos="random">
        <route edges="436617523#5 436617519#0 37749560#0 37749560#5 -204974728#2"/>
    </vehicle>
    <vehicle id="veh83" type="rerouting" depart="41.80" departLane="best" departPos="random" arrivalPos="random">
        <route edges="15404286#0 204998678#0 764593067#0 436617513#0 204981554#3 973936238#0 144469638#0 655501853#0 655501857#0 37020142#0 989393067#0"/>
    </vehicle>
    <vehicle id="veh84" type="rerouting" depart="41.85" departLane="best" departPos="random" arrivalPos="random">
        <route edges="37749560#5 15377309#0 -314612912#3 655501854#0"/>
    </vehicle>
    <vehicle id="veh85" type="rerouting" depart="42.09" departLane="best" departPos="random" departSpeed="max" arrivalPos="random">
        <route edges="-311608420#1 -1133338426#2 -30511389#7 -204974723#8 -204974723#3 -1352941069#2 -655501850 201680484#0 15404286#0"/>
    </vehicle>
    <vehicle id="veh86" type="rerouting" depart="42.23" departLane="best" departPos="random" arrivalPos="random">
        <route edges="655501857#0 130624540#0 1358681357 436613537#0 1034331492#0 -1352941069#2 -655501850 201680484#0 -204974728#5"/>
    </vehicle>
    <vehicle id="veh87" type="rerouting" depart="42.39" departLane="best" departPos="random" departSpeed="max" arrivalPos="random">
        <route edges="15382778#0 -436613327#1 -204981553#4 1096737354#0"/>
    </vehicle>
    <vehicle id="veh88" type="rerouting" depart="42.91" departLane="best" departPos="random" arrivalPos="random">
        <route edges="655283394#0 1352941067#0 201680484#0 15404286#0 204998678#0 764593067#0 436617513#0 436617518#0 204981553#0 204981553#3 436613327#0 143948165#0 436613328#0 -436616716#1 -204999708#1 -436610720#5 -37749547#7 15386265#0"/>
    </vehicle>
    <vehicle id="veh89" type="rerouting" depart="43.22" departLane="best" departPos="random" arrivalPos="random">
        <route edges="37749560#5 15377309#0 204974799#0 204974801#0 655283396#0 436625345#0 655283394#0"/>
    </vehicle>
    <vehicle id="veh90" type="rerouting" depart="44.13" departLane="best" departPos="random" arrivalPos="random">
        <route edges="321870323#0 1034331492#0 130624549#0 15388175#0 1377709445#0 204998675#0 436617517#0 263361802#0"/>
    </vehicle>
    <vehicle id="veh91" type="rerouting" depart="44.43" departLane="best" departPos="random" arrivalPos="random">
        <route edges="130624544#0 1095943089#0 1352941067#0 201680484#0 15404286#0"/>
    </vehicle>
    <vehicle id="veh92" type="rerouting" depart="45.26" departLane="best" departPos="random" arrivalPos="random">
        <route edges="-436614757#1 -968033523#1 -1008898690#1 -204974723#19 -204974723#13 -204974723#8 -204974723#3 130624549#0 15388175#0 1377709445#0 204998675#0 204981553#0 204981553#3 436613327#0 143948185#0 422088229#0"/>
    </vehicle>
    <vehicle id="veh93" type="rerouting" depart="47.06" departLane="best" departPos="random" departSpeed="max" arrivalPos="random">
        <route edges="204999703#0 204999708#0 436616716#0 315821985#0 315904408#0 422088229#0 204981554#0 204981554#3 973936238#0 144469638#0 1352941069#0 204974723#0 204974723#4 204974723#9 204974723#14 -1008898689#1 -153128296 153128297#0 656122436#0"/>
    </vehicle>
    <vehicle id="veh94" type="rerouting" depart="48.37" departLane="best" departPos="random" arrivalPos="random">
        <route edges="1275468369#0 1275468371#0 204981569#0 204981569#2"/>
    </vehicle>
    <vehicle id="veh95" type="rerouting" depart="48.69" departLane="best" departPos="random" arrivalPos="random">
        <route edges="655501857#0 130624540#0 1358681357 258828956#0 655283351#0 321870323#0"/>
    </vehicle>
    <vehicle id="veh96" type="rerouting" depart="49.20" departLane="best" departPos="random" arrivalPos="random">
        <route edges="-655283351#3 655283350#0 -1133338426#2"/>
    </vehicle>
    <vehicle id="veh97" type="rerouting" depart="49.39" departLane="best" departPos="random" arrivalPos="random">
        <route edges="1352941068#0 1352941069#0 204974723#0 204974723#4 30511389#5 141161580#0"/>
    </vehicle>
    <vehicle id="veh98" type="rerouting" depart="49.45" departLane="best" departPos="random" arrivalPos="random">
        <route edges="655501853#0 655501857#0 130624540#0 1358681357 258828956#0 655283350#0 436615692#0 1057173372#0 141161581#0 15396293"/>
    </vehicle>
    <vehicle id="veh99" type="rerouting" depart="49.52" departLane="best" departPos="random" arrivalPos="random">
        <route edges="655283394#0 1352941067#0 201680484#0 15404286#0 204998678#0 764593068#0"/>
    </vehicle>
    <vehicle id="veh100" type="rerouting" depart="49.69" departLane="best" departPos="random" arrivalPos="random">
        <route edges="-143948185#3 -436613327#1 -204981553#4 1096737354#0 204981554#0 204981554#3 973936238#0 -891734324#1 -30756754#1"/>
    </vehicle>
    <vehicle id="veh101" type="rerouting" depart="51.14" departLane="best" departPos="random" arrivalPos="random">
        <route edges="655283393#0 143948186#0 436612060#2 1275468370#0 201680483#0 764593067#0 436617513#0 436617518#0 436617517#0 204981568#0 30148684#5 275398021#0 -143978650#3"/>
    </vehicle>
    <vehicle id="veh102" type="rerouting" depart="51.22" departLane="best" departPos="random" arrivalPos="random">
        <route edges="1021936033#11 1377709445#0 204998675#0 204981553#0 204981553#3 436613327#0 143948165#0 436613328#0 -436616716#1 -204999708#1"/>
    </vehicle>
    <vehicle id="veh103" type="rerouting" depart="51.39" departLane="best" departPos="random" arrivalPos="random">
        <route edges="-40526566#4 655283390#2 436613537#0 1034331492#0"/>
    </vehicle>
    <vehicle id="veh104" type="rerouting" depart="51.42" departLane="best" departPos="random" arrivalPos="random">
        <route edges="-655501844#2 144469638#0 1352941069#0 204974723#0 15382769#4"/>
    </vehicle>
    <vehicle id="veh105" type="rerouting" depart="51.55" departLane="best" departPos="random" arrivalPos="random">
        <route edges="258828956#0 655283351#0 321870323#0 1034331492#0 130624549#0 15388175#0"/>
    </vehicle>
    <vehicle id="veh106" type="rerouting" depart="52.06" departLane="best" departPos="random" arrivalPos="random">
        <route edges="315821985#0 315904408#0 422088229#0 204981554#0 436617518#0 436617517#0 204981568#0 764593074#1 436617520#0 1021936032#3"/>
    </vehicle>
    <vehicle id="veh107" type="rerouting" depart="52.41" departLane="best" departPos="random" arrivalPos="random">