<?xml version="1.0" encoding="UTF-8"?>

<!-- generated on 2025-06-02 00:26:47.408291 by script.py UNKNOWN
<configuration>
    <net-file value="osm_network/osm.net.xml.gz"/>
    <route-file value="randomroutes.rou.xml"/>
    <prefix value="veh"/>
    <trip-attributes value="departLane=&quot;best&quot; departPos=&quot;random&quot; arrivalPos=&quot;random&quot; type=&quot;rerouting&quot;"/>
    <fringe-start-attributes value="departSpeed=&quot;max&quot;"/>
    <length value="True"/>
    <lanes value="True"/>
    <allow-fringe.min-length value="1000.0"/>
    <via-edge-types value="highway.motorway,highway.motorway_link,highway.trunk_link,highway.primary_link,highway.secondary_link,highway.tertiary_link"/>
    <random value="True"/>
    <min-distance value="2.0"/>
    <min-distance.fringe value="10.0"/>
    <remove-loops value="True"/>
    <validate value="True"/>
    <end value="300.0"/>
    <insertion-density value="200.0"/>
    <random-depart value="True"/>
</configuration>
-->

<!-- generated on 2025-06-02 00:26:47 by Eclipse SUMO duarouter Version 1.19.0
<configuration xmlns:xsi="http://www.w3.org/2001/XMLSchema-instance" xsi:noNamespaceSchemaLocation="http://sumo.dlr.de/xsd/duarouterConfiguration.xsd">

    <input>
        <net-file value="osm_network/osm.net.xml.gz"/>
        <route-files value="trips.trips.xml"/>
    </input>

    <output>
        <output-file value="trips.trips.xml.tmp"/>
        <alternatives-output value="NUL"/>
        <write-trips value="true"/>
    </output>

    <processing>
        <remove-loops value="true"/>
    </processing>

    <time>
        <begin value="0"/>
        <end value="300.0"/>
    </time>

    <report>
        <no-warnings value="true"/>
        <ignore-errors value="true"/>
        <no-step-log value="true"/>
    </report>

</configuration>
-->

<routes xmlns:xsi="http://www.w3.org/2001/XMLSchema-instance" xsi:noNamespaceSchemaLocation="http://sumo.dlr.de/xsd/routes_file.xsd">
    <trip id="veh0" type="rerouting" depart="0.23" departLane="best" departPos="random" departSpeed="max" arrivalPos="random" from="-315821985#4" to="30511389#5"/>
    <trip id="veh1" type="rerouting" depart="1.07" departLane="best" departPos="random" arrivalPos="random" from="655501852#0" to="129170700#0"/>
    <trip id="veh2" type="rerouting" depart="1.33" departLane="best" departPos="random" arrivalPos="random" from="422088229#0" to="321870323#0"/>
    <trip id="veh3" type="rerouting" depart="1.85" departLane="best" departPos="random" arrivalPos="random" from="-204998668#2" to="-1024443344#2"/>
    <trip id="veh4" type="rerouting" depart="1.85" departLane="best" departPos="random" arrivalPos="random" from="-1024443344#2" to="204974728#0"/>
    <trip id="veh5" type="rerouting" depart="3.07" departLane="best" departPos="random" arrivalPos="random" from="143978649" to="656122436#0"/>
    <trip id="veh6" type="rerouting" depart="4.47" departLane="best" departPos="random" arrivalPos="random" from="655501852#0" to="141161580#0"/>
    <trip id="veh7" type="rerouting" depart="5.14" departLane="best" departPos="random" arrivalPos="random" from="1275468370#0" to="1095943089#0"/>
    <trip id="veh8" type="rerouting" depart="6.01" departLane="best" departPos="random" arrivalPos="random" from="15404286#0" to="989393067#0"/>
    <trip id="veh9" type="rerouting" depart="6.93" departLane="best" departPos="random" arrivalPos="random" from="30511389#0" to="144469638#0"/>
    <trip id="veh10" type="rerouting" depart="7.03" departLane="best" departPos="random" arrivalPos="random" from="130624544#0" to="656122436#5"/>
    <trip id="veh11" type="rerouting" depart="7.11" departLane="best" departPos="random" arrivalPos="random" from="436617520#0" to="204974801#0"/>
    <trip id="veh12" type="rerouting" depart="7.42" departLane="best" departPos="random" arrivalPos="random" from="204981568#0" to="-1136660020"/>
    <trip id="veh13" type="rerouting" depart="7.92" departLane="best" departPos="random" arrivalPos="random" from="-204981553#4" to="655501852#0"/>
    <trip id="veh14" type="rerouting" depart="10.46" departLane="best" departPos="random" arrivalPos="random" from="655501852#0" to="655501857#0"/>
    <trip id="veh15" type="rerouting" depart="10.48" departLane="best" departPos="random" arrivalPos="random" from="141161580#0" to="204964687#0"/>
    <trip id="veh16" type="rerouting" depart="10.59" departLane="best" departPos="random" arrivalPos="random" from="130624544#0" to="-15381973#3"/>
    <trip id="veh17" type="rerouting" depart="10.65" departLane="best" departPos="random" departSpeed="max" arrivalPos="random" from="204999703#0" to="15396293"/>
    <trip id="veh18" type="rerouting" depart="11.47" departLane="best" departPos="random" arrivalPos="random" from="15388175#0" to="655283390#2"/>
    <trip id="veh19" type="rerouting" depart="12.21" departLane="best" departPos="random" arrivalPos="random" from="-129170700#3" to="15378911#0"/>
    <trip id="veh20" type="rerouting" depart="12.92" departLane="best" departPos="random" arrivalPos="random" from="1275468369#0" to="204974723#0"/>
    <trip id="veh21" type="rerouting" depart="13.86" departLane="best" departPos="random" arrivalPos="random" from="15377309#0" to="1352941067#0"/>
    <trip id="veh22" type="rerouting" depart="13.92" departLane="best" departPos="random" arrivalPos="random" from="-655501844#2" to="656122436#0"/>
    <trip id="veh23" type="rerouting" depart="14.32" departLane="best" departPos="random" arrivalPos="random" from="-1024443344#2" to="-275398021#2"/>
    <trip id="veh24" type="rerouting" depart="15.46" departLane="best" departPos="random" arrivalPos="random" from="-968033523#1" to="436615692#0"/>
    <trip id="veh25" type="rerouting" depart="15.69" departLane="best" departPos="random" arrivalPos="random" from="-1024443344#2" to="15381973#7"/>
    <trip id="veh26" type="rerouting" depart="15.70" departLane="best" departPos="random" arrivalPos="random" from="-968033523#1" to="15377309#0"/>
    <trip id="veh27" type="rerouting" depart="16.37" departLane="best" departPos="random" departSpeed="max" arrivalPos="random" from="-41287628#2" to="968033523#0"/>
    <trip id="veh28" type="rerouting" depart="17.14" departLane="best" departPos="random" arrivalPos="random" from="204981568#0" to="201680483#0"/>
    <trip id="veh29" type="rerouting" depart="17.37" departLane="best" departPos="random" arrivalPos="random" from="1034331492#0" to="30148684#5"/>
    <trip id="veh30" type="rerouting" depart="17.47" departLane="best" departPos="random" arrivalPos="random" from="204981568#0" to="-655501850"/>
    <trip id="veh31" type="rerouting" depart="17.62" departLane="best" departPos="random" arrivalPos="random" from="764593074#1" to="15381973#4"/>
    <trip id="veh33" type="rerouting" depart="18.92" departLane="best" departPos="random" arrivalPos="random" from="436617518#0" to="655501857#0"/>
    <trip id="veh34" type="rerouting" depart="19.30" departLane="best" departPos="random" arrivalPos="random" from="-30511389#7" to="-436616716#1"/>
    <trip id="veh35" type="rerouting" depart="19.35" departLane="best" departPos="random" arrivalPos="random" from="655501854#0" to="-15382769#3"/>
    <trip id="veh36" type="rerouting" depart="19.68" departLane="best" departPos="random" arrivalPos="random" from="-968033523#1" to="204998669#4"/>
    <trip id="veh37" type="rerouting" depart="19.84" departLane="best" departPos="random" arrivalPos="random" from="-275398021#2" to="1040752719#0"/>
    <trip id="veh38" type="rerouting" depart="21.33" departLane="best" departPos="random" arrivalPos="random" from="436613537#0" to="15383474#6"/>
    <trip id="veh39" type="rerouting" depart="21.49" departLane="best" departPos="random" arrivalPos="random" from="-129170700#3" to="30756754#0"/>
    <trip id="veh40" type="rerouting" depart="21.55" departLane="best" departPos="random" arrivalPos="random" from="656122436#0" to="172814612#0"/>
    <trip id="veh41" type="rerouting" depart="21.85" departLane="best" departPos="random" arrivalPos="random" from="15377309#0" to="764593068#0"/>
    <trip id="veh42" type="rerouting" depart="21.99" departLane="best" departPos="random" departSpeed="max" arrivalPos="random" from="436612060#0" to="1040752718#2"/>
    <trip id="veh43" type="rerouting" depart="22.09" departLane="best" departPos="random" arrivalPos="random" from="40526566#0" to="15377309#0"/>
    <trip id="veh44" type="rerouting" depart="22.46" departLane="best" departPos="random" arrivalPos="random" from="422088229#0" to="655501857#0"/>
    <trip id="veh45" type="rerouting" depart="23.45" departLane="best" departPos="random" arrivalPos="random" from="130624544#0" to="1040752719#0"/>
    <trip id="veh46" type="rerouting" depart="23.48" departLane="best" departPos="random" arrivalPos="random" from="-818448445#1" to="204981554#0"/>
    <trip id="veh47" type="rerouting" depart="23.48" departLane="best" departPos="random" arrivalPos="random" from="1275468370#0" to="315904408#0"/>
    <trip id="veh48" type="rerouting" depart="24.05" departLane="best" departPos="random" arrivalPos="random" from="436617518#0" to="37020142#0"/>
    <trip id="veh49" type="rerouting" depart="24.17" departLane="best" departPos="random" arrivalPos="random" from="15388175#0" to="328078179"/>
    <trip id="veh50" type="rerouting" depart="24.45" departLane="best" departPos="random" arrivalPos="random" from="655283394#0" to="-655501852#4"/>
    <trip id="veh51" type="rerouting" depart="25.42" departLane="best" departPos="random" departSpeed="max" arrivalPos="random" from="655283390#0" to="-1021936033#10"/>
    <trip id="veh52" type="rerouting" depart="25.65" departLane="best" departPos="random" departSpeed="max" arrivalPos="random" from="655283390#0" to="989393068#0"/>
    <trip id="veh53" type="rerouting" depart="26.37" departLane="best" departPos="random" departSpeed="max" arrivalPos="random" from="655283390#0" to="655501854#0"/>
    <trip id="veh54" type="rerouting" depart="26.38" departLane="best" departPos="random" arrivalPos="random" from="15381973#0" to="-655501850"/>
    <trip id="veh55" type="rerouting" depart="26.78" departLane="best" departPos="random" arrivalPos="random" from="-436614757#1" to="1133338426#0"/>
    <trip id="veh56" type="rerouting" depart="27.11" departLane="best" departPos="random" arrivalPos="random" from="655283350#0" to="1377709445#0"/>
    <trip id="veh57" type="rerouting" depart="29.28" departLane="best" departPos="random" arrivalPos="random" from="422088229#0" to="201680470#0"/>
    <trip id="veh58" type="rerouting" depart="29.81" departLane="best" departPos="random" arrivalPos="random" from="-1136660020" to="204981554#3"/>
    <trip id="veh59" type="rerouting" depart="30.45" departLane="best" departPos="random" arrivalPos="random" from="1275468370#0" to="-1024443344#2"/>
    <trip id="veh60" type="rerouting" depart="30.52" departLane="best" departPos="random" arrivalPos="random" from="-15381973#9" to="1133338426#0"/>
    <trip id="veh61" type="rerouting" depart="30.57" departLane="best" departPos="random" departSpeed="max" arrivalPos="random" from="436612060#0" to="1040752719#0"/>
    <trip id="veh62" type="rerouting" depart="30.80" departLane="best" departPos="random" arrivalPos="random" from="655501857#0" to="655283395#0"/>
    <trip id="veh63" type="rerouting" depart="31.84" departLane="best" departPos="random" arrivalPos="random" from="204964687#0" to="204998669#8"/>
    <trip id="veh64" type="rerouting" depart="32.17" departLane="best" departPos="random" departSpeed="max" arrivalPos="random" from="436742892#0" to="15398167#0"/>
    <trip id="veh65" type="rerouting" depart="32.41" departLane="best" departPos="random" arrivalPos="random" from="-1133338426#2" to="436614757#0"/>
    <trip id="veh66" type="rerouting" depart="32.63" departLane="best" departPos="random" arrivalPos="random" from="315904408#0" to="1095943089#0"/>
    <trip id="veh67" type="rerouting" depart="33.04" departLane="best" departPos="random" departSpeed="max" arrivalPos="random" from="15398110#0" to="204998678#0"/>
    <trip id="veh68" type="rerouting" depart="33.20" departLane="best" departPos="random" arrivalPos="random" from="-436613327#1" to="41287628#0"/>
    <trip id="veh69" type="rerouting" depart="33.98" departLane="best" departPos="random" departSpeed="max" arrivalPos="random" from="655283390#0" to="-143978650#3"/>
    <trip id="veh70" type="rerouting" depart="34.48" departLane="best" departPos="random" arrivalPos="random" from="144897554#0" to="1133338426#0"/>
    <trip id="veh71" type="rerouting" depart="36.57" departLane="best" departPos="random" arrivalPos="random" from="130624540#0" to="-655501852#4"/>
    <trip id="veh72" type="rerouting" depart="36.67" departLane="best" departPos="random" arrivalPos="random" from="422088229#0" to="201680484#0"/>
    <trip id="veh73" type="rerouting" depart="36.99" departLane="best" departPos="random" arrivalPos="random" from="141161580#0" to="1275468371#0"/>
    <trip id="veh74" type="rerouting" depart="37.10" departLane="best" departPos="random" arrivalPos="random" from="201680483#0" to="-30756754#1"/>
    <trip id="veh75" type="rerouting" depart="37.21" departLane="best" departPos="random" arrivalPos="random" from="655501854#0" to="263361802#0"/>
    <trip id="veh76" type="rerouting" depart="37.88" departLane="best" departPos="random" arrivalPos="random" from="15378911#0" to="764593067#0"/>
    <trip id="veh77" type="rerouting" depart="38.00" departLane="best" departPos="random" departSpeed="max" arrivalPos="random" from="1052934458#0" to="15383474#0"/>
    <trip id="veh78" type="rerouting" depart="38.09" departLane="best" departPos="random" arrivalPos="random" from="328078178#0" to="436617517#0"/>
    <trip id="veh79" type="rerouting" depart="38.40" departLane="best" departPos="random" arrivalPos="random" from="-1136660021#1" to="-204974728#5"/>
    <trip id="veh80" type="rerouting" depart="38.45" departLane="best" departPos="random" arrivalPos="random" from="436615692#0" to="655283393#0"/>
    <trip id="veh81" type="rerouting" depart="38.75" departLane="best" departPos="random" arrivalPos="random" from="15378911#0" to="15383474#6"/>
    <trip id="veh82" type="rerouting" depart="41.58" departLane="best" departPos="random" arrivalPos="random" from="436617523#5" to="-204974728#2"/>
    <trip id="veh83" type="rerouting" depart="41.80" departLane="best" departPos="random" arrivalPos="random" from="15404286#0" to="989393067#0"/>
    <trip id="veh84" type="rerouting" depart="41.85" departLane="best" departPos="random" arrivalPos="random" from="37749560#5" to="655501854#0"/>
    <trip id="veh85" type="rerouting" depart="42.09" departLane="best" departPos="random" departSpeed="max" arrivalPos="random" from="-311608420#1" to="15404286#0"/>
    <trip id="veh86" type="rerouting" depart="42.23" departLane="best" departPos="random" arrivalPos="random" from="655501857#0" to="-204974728#5"/>
    <trip id="veh87" type="rerouting" depart="42.39" departLane="best" departPos="random" departSpeed="max" arrivalPos="random" from="15382778#0" to="1096737354#0"/>
    <trip id="veh88" type="rerouting" depart="42.91" departLane="best" departPos="random" arrivalPos="random" from="655283394#0" to="15386265#0"/>
    <trip id="veh89" type="rerouting" depart="43.22" departLane="best" departPos="random" arrivalPos="random" from="37749560#5" to="655283394#0"/>
    <trip id="veh90" type="rerouting" depart="44.13" departLane="best" departPos="random" arrivalPos="random" from="321870323#0" to="263361802#0"/>
    <trip id="veh91" type="rerouting" depart="44.43" departLane="best" departPos="random" arrivalPos="random" from="130624544#0" to="15404286#0"/>
    <trip id="veh92" type="rerouting" depart="45.26" departLane="best" departPos="random" arrivalPos="random" from="-436614757#1" to="422088229#0"/>
    <trip id="veh93" type="rerouting" depart="47.06" departLane="best" departPos="random" departSpeed="max" arrivalPos="random" from="204999703#0" to="656122436#0"/>
    <trip id="veh94" type="rerouting" depart="48.37" departLane="best" departPos="random" arrivalPos="random" from="1275468369#0" to="204981569#2"/>
    <trip id="veh95" type="rerouting" depart="48.69" departLane="best" departPos="random" arrivalPos="random" from="655501857#0" to="321870323#0"/>
    <trip id="veh96" type="rerouting" depart="49.20" departLane="best" departPos="random" arrivalPos="random" from="-655283351#3" to="-1133338426#2"/>
    <trip id="veh97" type="rerouting" depart="49.39" departLane="best" departPos="random" arrivalPos="random" from="1352941068#0" to="141161580#0"/>
    <trip id="veh98" type="rerouting" depart="49.45" departLane="best" departPos="random" arrivalPos="random" from="655501853#0" to="15396293"/>
    <trip id="veh99" type="rerouting" depart="49.52" departLane="best" departPos="random" arrivalPos="random" from="655283394#0" to="764593068#0"/>
    <trip id="veh100" type="rerouting" depart="49.69" departLane="best" departPos="random" arrivalPos="random" from="-143948185#3" to="-30756754#1"/>
    <trip id="veh101" type="rerouting" depart="51.14" departLane="best" departPos="random" arrivalPos="random" from="655283393#0" to="-143978650#3"/>
    <trip id="veh102" type="rerouting" depart="51.22" departLane="best" departPos="random" arrivalPos="random" from="1021936033#11" to="-204999708#1"/>
    <trip id="veh103" type="rerouting" depart="51.39" departLane="best" departPos="random" arrivalPos="random" from="-40526566#4" to="1034331492#0"/>
    <trip id="veh104" type="rerouting" depart="51.42" departLane="best" departPos="random" arrivalPos="random" from="-655501844#2" to="15382769#4"/>
    <trip id="veh105" type="rerouting" depart="51.55" departLane="best" departPos="random" arrivalPos="random" from="258828956#0" to="15388175#0"/>
    <trip id="veh106" type="rerouting" depart="52.06" departLane="best" departPos="random" arrivalPos="random" from="315821985#0" to="1021936032#3"/>
    <trip id="veh107" type="rerouting" depart="52.41" departLane="best" departPos="random" arrivalPos="random" from="764593068#0" to="436613537#0"/>
    <trip id="veh108" type="rerouting" depart="52.78" departLane="best" departPos="random" arrivalPos="random" from="-204998675#1" to="144469638#0"/>
    <trip id="veh109" type="rerouting" depart="53.23" departLane="best" departPos="random" arrivalPos="random" from="-655501844#2" to="258828956#0"/>
    <trip id="veh110" type="rerouting" depart="53.33" departLane="best" departPos="random" arrivalPos="random" from="436617516#0" to="-655501845#4"/>
    <trip id="veh111" type="rerouting" depart="53.35" departLane="best" departPos="random" arrivalPos="random" from="436624321#0" to="-204974728#2"/>
    <trip id="veh112" type="rerouting" depart="53.50" departLane="best" departPos="random" arrivalPos="random" from="204974799#0" to="-30511389#4"/>
    <trip id="veh113" type="rerouting" depart="53.52" departLane="best" departPos="random" arrivalPos="random" from="-818448445#5" to="436613328#0"/>
    <trip id="veh114" type="rerouting" depart="53.79" departLane="best" departPos="random" arrivalPos="random" from="-655501844#2" to="-143978650#3"/>
    <trip id="veh115" type="rerouting" depart="54.24" departLane="best" departPos="random" arrivalPos="random" from="15378911#0" to="764593068#0"/>
    <trip id="veh116" type="rerouting" depart="54.73" departLane="best" departPos="random" arrivalPos="random" from="-436614752#1" to="655283395#0"/>
    <trip id="veh117" type="rerouting" depart="54.92" departLane="best" departPos="random" arrivalPos="random" from="-204998675#1" to="143978650#0"/>
    <trip id="veh118" type="rerouting" depart="55.14" departLane="best" departPos="random" departSpeed="max" arrivalPos="random" from="37749548" to="-1024443344#2"/>
    <trip id="veh119" type="rerouting" depart="55.25" departLane="best" departPos="random" departSpeed="max" arrivalPos="random" from="436612060#0" to="204974723#4"/>
    <trip id="veh120" type="rerouting" depart="55.70" departLane="best" departPos="random" arrivalPos="random" from="-1021936032#2" to="15388175#0"/>
    <trip id="veh122" type="rerouting" depart="57.75" departLane="best" departPos="random" arrivalPos="random" from="655283393#0" to="172814612#0"/>
    <trip id="veh123" type="rerouting" depart="57.84" departLane="best" departPos="random" departSpeed="max" arrivalPos="random" from="15398110#0" to="15398167#0"/>
    <trip id="veh124" type="rerouting" depart="58.34" departLane="best" departPos="random" arrivalPos="random" from="315904408#0" to="311608420#0"/>
    <trip id="veh125" type="rerouting" depart="58.44" departLane="best" departPos="random" arrivalPos="random" from="144897554#0" to="1034331492#0"/>
    <trip id="veh126" type="rerouting" depart="58.47" departLane="best" departPos="random" arrivalPos="random" from="143978650#0" to="1095943089#0"/>
    <trip id="veh127" type="rerouting" depart="59.09" departLane="best" departPos="random" arrivalPos="random" from="655501844#0" to="655283396#0"/>
    <trip id="veh128" type="rerouting" depart="59.52" departLane="best" departPos="random" departSpeed="max" arrivalPos="random" from="436742892#0" to="436617520#0"/>
    <trip id="veh130" type="rerouting" depart="59.96" departLane="best" departPos="random" arrivalPos="random" from="-968033523#1" to="15404286#0"/>
    <trip id="veh131" type="rerouting" depart="60.36" departLane="best" departPos="random" arrivalPos="random" from="130624549#0" to="-1021936033#14"/>
    <trip id="veh132" type="rerouting" depart="60.41" departLane="best" departPos="random" departSpeed="max" arrivalPos="random" from="655283390#0" to="436613327#0"/>
    <trip id="veh133" type="rerouting" depart="60.57" departLane="best" departPos="random" arrivalPos="random" from="436617517#0" to="32065527#0"/>
    <trip id="veh134" type="rerouting" depart="61.27" departLane="best" departPos="random" arrivalPos="random" from="-15381973#6" to="144469638#0"/>
    <trip id="veh135" type="rerouting" depart="61.38" departLane="best" departPos="random" arrivalPos="random" from="-655501852#4" to="655501854#0"/>
    <trip id="veh136" type="rerouting" depart="61.63" departLane="best" departPos="random" arrivalPos="random" from="37749560#5" to="204981553#3"/>
    <trip id="veh137" type="rerouting" depart="62.19" departLane="best" departPos="random" arrivalPos="random" from="204981554#0" to="144469638#0"/>
    <trip id="veh138" type="rerouting" depart="62.27" departLane="best" departPos="random" arrivalPos="random" from="-1035976914#1" to="-314612912#3"/>
    <trip id="veh139" type="rerouting" depart="62.32" departLane="best" departPos="random" arrivalPos="random" from="30148740#0" to="989393068#0"/>
    <trip id="veh140" type="rerouting" depart="63.01" departLane="best" departPos="random" arrivalPos="random" from="-143948165#1" to="655501857#0"/>
    <trip id="veh141" type="rerouting" depart="63.04" departLane="best" departPos="random" arrivalPos="random" from="1008898689#0" to="258828956#0"/>
    <trip id="veh142" type="rerouting" depart="63.21" departLane="best" departPos="random" arrivalPos="random" from="-204974723#19" to="655283393#0"/>
    <trip id="veh143" type="rerouting" depart="63.86" departLane="best" departPos="random" departSpeed="max" arrivalPos="random" from="-315821985#4" to="-37749547#7"/>
    <trip id="veh144" type="rerouting" depart="64.12" departLane="best" departPos="random" arrivalPos="random" from="15377309#0" to="1275468370#0"/>
    <trip id="veh145" type="rerouting" depart="64.68" departLane="best" departPos="random" arrivalPos="random" from="-968033523#1" to="1095943089#0"/>
    <trip id="veh146" type="rerouting" depart="65.17" departLane="best" departPos="random" departSpeed="max" arrivalPos="random" from="-27401253#1" to="1352941067#0"/>
    <trip id="veh147" type="rerouting" depart="65.78" departLane="best" departPos="random" arrivalPos="random" from="-968033523#1" to="144469638#0"/>
    <trip id="veh148" type="rerouting" depart="67.06" departLane="best" departPos="random" arrivalPos="random" from="204981554#0" to="989393067#0"/>
    <trip id="veh149" type="rerouting" depart="67.82" departLane="best" departPos="random" arrivalPos="random" from="204974728#3" to="204974723#9"/>
    <trip id="veh150" type="rerouting" depart="68.41" departLane="best" departPos="random" arrivalPos="random" from="-204999701#3" to="15396293"/>
    <trip id="veh151" type="rerouting" depart="68.62" departLane="best" departPos="random" arrivalPos="random" from="172814612#0" to="201680483#0"/>
    <trip id="veh152" type="rerouting" depart="69.28" departLane="best" departPos="random" arrivalPos="random" from="130624540#0" to="204998669#8"/>
    <trip id="veh153" type="rerouting" depart="69.56" departLane="best" departPos="random" arrivalPos="random" from="1352941068#0" to="655283390#2"/>
    <trip id="veh154" type="rerouting" depart="70.03" departLane="best" departPos="random" arrivalPos="random" from="436613537#0" to="422088248#0"/>
    <trip id="veh155" type="rerouting" depart="70.37" departLane="best" departPos="random" departSpeed="max" arrivalPos="random" from="-41287628#2" to="15404286#0"/>
    <trip id="veh156" type="rerouting" depart="70.64" departLane="best" departPos="random" arrivalPos="random" from="15404286#0" to="655501854#0"/>
    <trip id="veh157" type="rerouting" depart="70.92" departLane="best" departPos="random" arrivalPos="random" from="973936238#0" to="-436610720#5"/>
    <trip id="veh158" type="rerouting" depart="71.60" departLane="best" departPos="random" arrivalPos="random" from="201680483#0" to="144469638#0"/>
    <trip id="veh159" type="rerouting" depart="71.61" departLane="best" departPos="random" arrivalPos="random" from="321870323#0" to="1095943089#0"/>
    <trip id="veh160" type="rerouting" depart="71.68" departLane="best" departPos="random" arrivalPos="random" from="15383474#0" to="15404286#0"/>
    <trip id="veh161" type="rerouting" depart="72.36" departLane="best" departPos="random" arrivalPos="random" from="32065527#0" to="436615692#0"/>
    <trip id="veh162" type="rerouting" depart="72.56" departLane="best" departPos="random" arrivalPos="random" from="204998678#0" to="655501857#0"/>
    <trip id="veh163" type="rerouting" depart="72.76" departLane="best" departPos="random" arrivalPos="random" from="656122436#0" to="321870323#0"/>
    <trip id="veh164" type="rerouting" depart="73.18" departLane="best" departPos="random" arrivalPos="random" from="141161580#0" to="172814612#0"/>
    <trip id="veh165" type="rerouting" depart="73.32" departLane="best" departPos="random" arrivalPos="random" from="655283392#0" to="-15398110#2"/>
    <trip id="veh166" type="rerouting" depart="73.60" departLane="best" departPos="random" arrivalPos="random" from="-30511389#7" to="15378911#0"/>
    <trip id="veh167" type="rerouting" depart="73.65" departLane="best" departPos="random" departSpeed="max" arrivalPos="random" from="-15396293" to="-204974723#8"/>
    <trip id="veh168" type="rerouting" depart="74.13" departLane="best" departPos="random" arrivalPos="random" from="144469638#0" to="436614757#0"/>
    <trip id="veh169" type="rerouting" depart="75.14" departLane="best" departPos="random" departSpeed="max" arrivalPos="random" from="-27401253#1" to="436617523#5"/>
    <trip id="veh170" type="rerouting" depart="75.88" departLane="best" departPos="random" arrivalPos="random" from="655283350#0" to="-275398021#2"/>
    <trip id="veh171" type="rerouting" depart="76.15" departLane="best" departPos="random" arrivalPos="random" from="204974723#0" to="129170700#0"/>
    <trip id="veh172" type="rerouting" depart="76.19" departLane="best" departPos="random" arrivalPos="random" from="-1024443344#2" to="130624540#0"/>
    <trip id="veh173" type="rerouting" depart="77.94" departLane="best" departPos="random" arrivalPos="random" from="-655501850" to="-1024443344#2"/>
    <trip id="veh174" type="rerouting" depart="78.01" departLane="best" departPos="random" arrivalPos="random" from="275398021#0" to="-40526566#4"/>
    <trip id="veh175" type="rerouting" depart="78.12" departLane="best" departPos="random" arrivalPos="random" from="436612060#2" to="149706995#0"/>
    <trip id="veh176" type="rerouting" depart="78.45" departLane="best" departPos="random" departSpeed="max" arrivalPos="random" from="436742892#0" to="143978649"/>
    <trip id="veh177" type="rerouting" depart="78.68" departLane="best" departPos="random" arrivalPos="random" from="37749560#0" to="204974728#3"/>
    <trip id="veh178" type="rerouting" depart="79.07" departLane="best" departPos="random" arrivalPos="random" from="655283392#0" to="973936238#0"/>
    <trip id="veh179" type="rerouting" depart="79.75" departLane="best" departPos="random" arrivalPos="random" from="973936238#0" to="436614752#0"/>
    <trip id="veh180" type="rerouting" depart="80.98" departLane="best" departPos="random" arrivalPos="random" from="204999701#0" to="655501844#0"/>
    <trip id="veh181" type="rerouting" depart="81.51" departLane="best" departPos="random" arrivalPos="random" from="204974801#0" to="204981553#0"/>
    <trip id="veh182" type="rerouting" depart="83.48" departLane="best" departPos="random" arrivalPos="random" from="130624549#0" to="204974723#4"/>
    <trip id="veh183" type="rerouting" depart="83.59" departLane="best" departPos="random" departSpeed="max" arrivalPos="random" from="-15396293" to="130624540#0"/>
    <trip id="veh184" type="rerouting" depart="84.03" departLane="best" departPos="random" arrivalPos="random" from="-129170700#6" to="204998678#0"/>
    <trip id="veh185" type="rerouting" depart="85.12" departLane="best" departPos="random" arrivalPos="random" from="1021936032#0" to="-204974728#5"/>
    <trip id="veh186" type="rerouting" depart="85.32" departLane="best" departPos="random" arrivalPos="random" from="1275468369#0" to="204998668#0"/>
    <trip id="veh187" type="rerouting" depart="85.60" departLane="best" departPos="random" arrivalPos="random" from="656122436#0" to="656122436#5"/>